Version 4
SHEET 1 11128 11664
WIRE 912 -1024 848 -1024
WIRE 96 -992 32 -992
WIRE 2272 -944 2128 -944
WIRE 2352 -944 2352 -1024
WIRE 2352 -944 2272 -944
WIRE 2496 -944 2352 -944
WIRE 2576 -944 2496 -944
WIRE 3968 -928 3920 -928
WIRE 4096 -928 3968 -928
WIRE 4144 -928 4096 -928
WIRE 4224 -928 4224 -992
WIRE 4224 -928 4144 -928
WIRE 4336 -928 4224 -928
WIRE 4368 -928 4336 -928
WIRE 3152 -896 3104 -896
WIRE 3232 -896 3232 -960
WIRE 3232 -896 3152 -896
WIRE 3344 -896 3232 -896
WIRE 3376 -896 3344 -896
WIRE 3920 -896 3920 -928
WIRE 4096 -896 4096 -928
WIRE 4336 -896 4336 -928
WIRE 1472 -880 1472 -960
WIRE 1472 -880 1264 -880
WIRE 1552 -880 1472 -880
WIRE 1600 -880 1552 -880
WIRE 2128 -880 2128 -944
WIRE 3104 -864 3104 -896
WIRE 3344 -864 3344 -896
WIRE 1264 -848 1264 -880
WIRE 1552 -848 1552 -880
WIRE 3968 -848 3968 -928
WIRE 3968 -848 3920 -848
WIRE 4144 -848 4144 -928
WIRE 4144 -848 4096 -848
WIRE 4368 -848 4368 -928
WIRE 4368 -848 4336 -848
WIRE 2272 -832 2272 -944
WIRE 2272 -832 2128 -832
WIRE 3520 -832 3520 -880
WIRE 3600 -832 3520 -832
WIRE 4544 -832 4544 -880
WIRE 4624 -832 4544 -832
WIRE 2496 -816 2496 -944
WIRE 3152 -816 3152 -896
WIRE 3152 -816 3104 -816
WIRE 3376 -816 3376 -896
WIRE 3376 -816 3344 -816
WIRE -656 -800 -768 -800
WIRE -544 -800 -576 -800
WIRE -496 -800 -544 -800
WIRE 1472 -800 1472 -880
WIRE 1472 -800 1264 -800
WIRE 1600 -800 1600 -880
WIRE 1600 -800 1552 -800
WIRE -768 -784 -768 -800
WIRE 3600 -784 3600 -832
WIRE 3600 -784 3520 -784
WIRE 4624 -784 4624 -832
WIRE 4624 -784 4544 -784
WIRE -64 -768 -64 -816
WIRE -32 -768 -64 -768
WIRE 2576 -768 2576 -944
WIRE 2576 -768 2496 -768
WIRE 1744 -752 1744 -800
WIRE 1824 -752 1744 -752
WIRE 3472 -752 3440 -752
WIRE 4496 -752 4464 -752
WIRE -32 -720 -32 -768
WIRE -32 -720 -64 -720
WIRE 2720 -720 2720 -768
WIRE 2800 -720 2720 -720
WIRE 1264 -704 1264 -752
WIRE 1408 -704 1264 -704
WIRE 1552 -704 1552 -752
WIRE 1552 -704 1408 -704
WIRE 1824 -704 1824 -752
WIRE 1824 -704 1744 -704
WIRE 3920 -704 3920 -800
WIRE 4096 -704 4096 -800
WIRE 4096 -704 3920 -704
WIRE 4112 -704 4096 -704
WIRE 4336 -704 4336 -800
WIRE 4336 -704 4112 -704
WIRE 2128 -688 2128 -784
WIRE 4112 -688 4112 -704
WIRE 4464 -688 4464 -752
WIRE 4464 -688 4112 -688
WIRE -656 -672 -720 -672
WIRE -544 -672 -544 -800
WIRE -544 -672 -576 -672
WIRE 608 -672 608 -816
WIRE 640 -672 608 -672
WIRE 1408 -672 1408 -704
WIRE 1696 -672 1664 -672
WIRE 2800 -672 2800 -720
WIRE 2800 -672 2720 -672
WIRE 272 -656 272 -704
WIRE 352 -656 272 -656
WIRE 944 -656 944 -704
WIRE 1024 -656 944 -656
WIRE 3104 -656 3104 -768
WIRE 3232 -656 3104 -656
WIRE 3344 -656 3344 -768
WIRE 3344 -656 3232 -656
WIRE 2272 -640 2272 -832
WIRE 2272 -640 2128 -640
WIRE 2672 -640 2640 -640
WIRE 3520 -640 3520 -736
WIRE 3600 -640 3520 -640
WIRE 4160 -640 4112 -640
WIRE 4544 -640 4544 -736
WIRE 4624 -640 4544 -640
WIRE -32 -624 -32 -720
WIRE -32 -624 -64 -624
WIRE 640 -624 640 -672
WIRE 640 -624 608 -624
WIRE 1472 -624 1472 -800
WIRE 1472 -624 1408 -624
WIRE 3232 -624 3232 -656
WIRE 3440 -624 3440 -752
WIRE 3440 -624 3232 -624
WIRE 352 -608 352 -656
WIRE 352 -608 272 -608
WIRE 1024 -608 1024 -656
WIRE 1024 -608 944 -608
WIRE 3232 -608 3232 -624
WIRE 2320 -592 2128 -592
WIRE 2496 -592 2496 -720
WIRE 2496 -592 2320 -592
WIRE 3520 -592 3520 -640
WIRE 4544 -592 4544 -640
WIRE 224 -576 192 -576
WIRE 896 -576 864 -576
WIRE 1744 -560 1744 -656
WIRE 1824 -560 1744 -560
WIRE 3280 -560 3232 -560
WIRE 1408 -544 1408 -576
WIRE 1664 -544 1664 -672
WIRE 1664 -544 1408 -544
WIRE 2320 -544 2320 -592
WIRE 2640 -544 2640 -640
WIRE 2640 -544 2320 -544
WIRE -32 -528 -32 -624
WIRE -32 -528 -64 -528
WIRE 640 -528 640 -624
WIRE 640 -528 608 -528
WIRE 2720 -528 2720 -624
WIRE 2800 -528 2720 -528
WIRE 1408 -512 1408 -544
WIRE 1408 -512 1296 -512
WIRE 1520 -512 1408 -512
WIRE 1744 -512 1744 -560
WIRE 3440 -512 3440 -624
WIRE 3472 -512 3440 -512
WIRE 3520 -512 3520 -544
WIRE 4464 -512 4464 -688
WIRE 4496 -512 4464 -512
WIRE 4544 -512 4544 -544
WIRE -656 -496 -720 -496
WIRE -544 -496 -544 -672
WIRE -544 -496 -576 -496
WIRE 4112 -496 4112 -592
WIRE 2720 -480 2720 -528
WIRE -64 -464 -64 -480
WIRE 192 -464 192 -576
WIRE 192 -464 -64 -464
WIRE 272 -464 272 -560
WIRE 352 -464 272 -464
WIRE 608 -464 608 -480
WIRE 864 -464 864 -576
WIRE 864 -464 608 -464
WIRE 944 -464 944 -560
WIRE 1024 -464 944 -464
WIRE 1520 -464 1520 -512
WIRE 2320 -464 2320 -544
WIRE 4160 -448 4112 -448
WIRE -64 -432 -64 -464
WIRE -64 -432 -224 -432
WIRE 80 -432 -64 -432
WIRE 608 -432 608 -464
WIRE 752 -432 608 -432
WIRE 1664 -432 1664 -544
WIRE 1696 -432 1664 -432
WIRE 1744 -432 1744 -464
WIRE 272 -416 272 -464
WIRE 944 -416 944 -464
WIRE 1584 -416 1520 -416
WIRE 2400 -416 2320 -416
WIRE 3232 -416 3232 -512
WIRE 2640 -400 2640 -544
WIRE 2672 -400 2640 -400
WIRE 2720 -400 2720 -432
WIRE -224 -384 -224 -432
WIRE -64 -384 -64 -432
WIRE 80 -384 80 -432
WIRE 608 -384 608 -432
WIRE 752 -384 752 -432
WIRE 1296 -368 1296 -512
WIRE 2400 -368 2400 -416
WIRE 3296 -368 3232 -368
WIRE -656 -336 -720 -336
WIRE -544 -336 -544 -496
WIRE -544 -336 -576 -336
WIRE -176 -336 -224 -336
WIRE -32 -336 -64 -336
WIRE 144 -336 80 -336
WIRE 192 -336 192 -464
WIRE 224 -336 192 -336
WIRE 272 -336 272 -368
WIRE 640 -336 608 -336
WIRE 816 -336 752 -336
WIRE 864 -336 864 -464
WIRE 896 -336 864 -336
WIRE 944 -336 944 -368
WIRE 1408 -320 1296 -320
WIRE 2208 -320 2192 -320
WIRE 2320 -320 2320 -368
WIRE 2320 -320 2208 -320
WIRE 2544 -320 2320 -320
WIRE 4112 -320 4112 -400
WIRE -544 -304 -544 -336
WIRE -464 -304 -544 -304
WIRE 2320 -304 2320 -320
WIRE -224 -288 -224 -304
WIRE 80 -272 80 -288
WIRE 144 -272 144 -336
WIRE 144 -272 80 -272
WIRE 752 -272 752 -288
WIRE 816 -272 816 -336
WIRE 816 -272 752 -272
WIRE 1520 -272 1520 -368
WIRE 3232 -272 3232 -320
WIRE 3296 -272 3296 -368
WIRE 3296 -272 3232 -272
WIRE 4160 -272 4160 -448
WIRE 4160 -272 4112 -272
WIRE -176 -256 -176 -336
WIRE -64 -256 -64 -288
WIRE -64 -256 -176 -256
WIRE -32 -256 -32 -336
WIRE -32 -256 -64 -256
WIRE 608 -256 608 -288
WIRE 640 -256 640 -336
WIRE 640 -256 608 -256
WIRE 3232 -240 3232 -272
WIRE -224 -224 -224 -288
WIRE -64 -224 -64 -256
WIRE -64 -224 -224 -224
WIRE 80 -224 80 -272
WIRE 80 -224 -64 -224
WIRE 608 -224 608 -256
WIRE 752 -224 752 -272
WIRE 752 -224 608 -224
WIRE 1584 -224 1584 -416
WIRE 1584 -224 1520 -224
WIRE 2208 -224 2208 -320
WIRE 2544 -224 2544 -320
WIRE -656 -208 -720 -208
WIRE -544 -208 -544 -304
WIRE -544 -208 -576 -208
WIRE -64 -176 -64 -224
WIRE 608 -176 608 -224
WIRE 2352 -176 2208 -176
WIRE 2640 -176 2544 -176
WIRE 4112 -176 4112 -224
WIRE 4160 -176 4160 -272
WIRE 4160 -176 4112 -176
WIRE 4176 -176 4160 -176
WIRE 1296 -128 1296 -272
WIRE 1408 -128 1408 -320
WIRE 1408 -128 1296 -128
WIRE 1520 -128 1520 -176
WIRE 1520 -128 1408 -128
WIRE 1584 -128 1584 -224
WIRE 1584 -128 1520 -128
WIRE 4112 -112 4112 -176
WIRE 1408 -80 1408 -128
WIRE 2208 -80 2208 -128
WIRE 2352 -80 2352 -176
WIRE 2352 -80 2208 -80
WIRE 2544 -80 2544 -128
WIRE 2544 -80 2352 -80
WIRE -656 -64 -720 -64
WIRE -544 -64 -544 -208
WIRE -544 -64 -576 -64
WIRE 2352 -16 2352 -80
WIRE 2640 -16 2640 -176
WIRE 2640 -16 2352 -16
WIRE 2352 0 2352 -16
WIRE -656 64 -720 64
WIRE -544 64 -544 -64
WIRE -544 64 -576 64
WIRE -528 64 -544 64
WIRE 912 208 848 208
WIRE 96 240 32 240
WIRE 2272 288 2128 288
WIRE 2352 288 2352 208
WIRE 2352 288 2272 288
WIRE 2496 288 2352 288
WIRE 2576 288 2496 288
WIRE 3968 304 3920 304
WIRE 4096 304 3968 304
WIRE 4144 304 4096 304
WIRE 4224 304 4224 240
WIRE 4224 304 4144 304
WIRE 4336 304 4224 304
WIRE 4368 304 4336 304
WIRE 3152 336 3104 336
WIRE 3232 336 3232 272
WIRE 3232 336 3152 336
WIRE 3344 336 3232 336
WIRE 3376 336 3344 336
WIRE 3920 336 3920 304
WIRE 4096 336 4096 304
WIRE 4336 336 4336 304
WIRE 1472 352 1472 272
WIRE 1472 352 1264 352
WIRE 1552 352 1472 352
WIRE 1600 352 1552 352
WIRE 2128 352 2128 288
WIRE 3104 368 3104 336
WIRE 3344 368 3344 336
WIRE 1264 384 1264 352
WIRE 1552 384 1552 352
WIRE 3968 384 3968 304
WIRE 3968 384 3920 384
WIRE 4144 384 4144 304
WIRE 4144 384 4096 384
WIRE 4368 384 4368 304
WIRE 4368 384 4336 384
WIRE 2272 400 2272 288
WIRE 2272 400 2128 400
WIRE 3520 400 3520 352
WIRE 3600 400 3520 400
WIRE 4544 400 4544 352
WIRE 4624 400 4544 400
WIRE 2496 416 2496 288
WIRE 3152 416 3152 336
WIRE 3152 416 3104 416
WIRE 3376 416 3376 336
WIRE 3376 416 3344 416
WIRE 1472 432 1472 352
WIRE 1472 432 1264 432
WIRE 1600 432 1600 352
WIRE 1600 432 1552 432
WIRE 3600 448 3600 400
WIRE 3600 448 3520 448
WIRE 4624 448 4624 400
WIRE 4624 448 4544 448
WIRE -64 464 -64 416
WIRE -32 464 -64 464
WIRE 2576 464 2576 288
WIRE 2576 464 2496 464
WIRE 1744 480 1744 432
WIRE 1824 480 1744 480
WIRE 3472 480 3440 480
WIRE 4496 480 4464 480
WIRE -32 512 -32 464
WIRE -32 512 -64 512
WIRE 2720 512 2720 464
WIRE 2800 512 2720 512
WIRE 1264 528 1264 480
WIRE 1408 528 1264 528
WIRE 1552 528 1552 480
WIRE 1552 528 1408 528
WIRE 1824 528 1824 480
WIRE 1824 528 1744 528
WIRE 3920 528 3920 432
WIRE 4096 528 4096 432
WIRE 4096 528 3920 528
WIRE 4112 528 4096 528
WIRE 4336 528 4336 432
WIRE 4336 528 4112 528
WIRE 2128 544 2128 448
WIRE 4112 544 4112 528
WIRE 4464 544 4464 480
WIRE 4464 544 4112 544
WIRE 608 560 608 416
WIRE 640 560 608 560
WIRE 1408 560 1408 528
WIRE 1696 560 1664 560
WIRE 2800 560 2800 512
WIRE 2800 560 2720 560
WIRE 272 576 272 528
WIRE 352 576 272 576
WIRE 944 576 944 528
WIRE 1024 576 944 576
WIRE 3104 576 3104 464
WIRE 3232 576 3104 576
WIRE 3344 576 3344 464
WIRE 3344 576 3232 576
WIRE 2272 592 2272 400
WIRE 2272 592 2128 592
WIRE 2672 592 2640 592
WIRE 3520 592 3520 496
WIRE 3600 592 3520 592
WIRE 4160 592 4112 592
WIRE 4544 592 4544 496
WIRE 4624 592 4544 592
WIRE -32 608 -32 512
WIRE -32 608 -64 608
WIRE 640 608 640 560
WIRE 640 608 608 608
WIRE 1472 608 1472 432
WIRE 1472 608 1408 608
WIRE 3232 608 3232 576
WIRE 3440 608 3440 480
WIRE 3440 608 3232 608
WIRE 352 624 352 576
WIRE 352 624 272 624
WIRE 1024 624 1024 576
WIRE 1024 624 944 624
WIRE 3232 624 3232 608
WIRE 2320 640 2128 640
WIRE 2496 640 2496 512
WIRE 2496 640 2320 640
WIRE 3520 640 3520 592
WIRE 4544 640 4544 592
WIRE 224 656 192 656
WIRE 896 656 864 656
WIRE 1744 672 1744 576
WIRE 1824 672 1744 672
WIRE 3280 672 3232 672
WIRE 1408 688 1408 656
WIRE 1664 688 1664 560
WIRE 1664 688 1408 688
WIRE 2320 688 2320 640
WIRE 2640 688 2640 592
WIRE 2640 688 2320 688
WIRE -32 704 -32 608
WIRE -32 704 -64 704
WIRE 640 704 640 608
WIRE 640 704 608 704
WIRE 2720 704 2720 608
WIRE 2800 704 2720 704
WIRE 1408 720 1408 688
WIRE 1408 720 1296 720
WIRE 1520 720 1408 720
WIRE 1744 720 1744 672
WIRE 3440 720 3440 608
WIRE 3472 720 3440 720
WIRE 3520 720 3520 688
WIRE 4464 720 4464 544
WIRE 4496 720 4464 720
WIRE 4544 720 4544 688
WIRE 4112 736 4112 640
WIRE 2720 752 2720 704
WIRE -64 768 -64 752
WIRE 192 768 192 656
WIRE 192 768 -64 768
WIRE 272 768 272 672
WIRE 352 768 272 768
WIRE 608 768 608 752
WIRE 864 768 864 656
WIRE 864 768 608 768
WIRE 944 768 944 672
WIRE 1024 768 944 768
WIRE 1520 768 1520 720
WIRE 2320 768 2320 688
WIRE 4160 784 4112 784
WIRE -64 800 -64 768
WIRE -64 800 -224 800
WIRE 80 800 -64 800
WIRE 608 800 608 768
WIRE 752 800 608 800
WIRE 1664 800 1664 688
WIRE 1696 800 1664 800
WIRE 1744 800 1744 768
WIRE 272 816 272 768
WIRE 944 816 944 768
WIRE 1584 816 1520 816
WIRE 2400 816 2320 816
WIRE 3232 816 3232 720
WIRE 2640 832 2640 688
WIRE 2672 832 2640 832
WIRE 2720 832 2720 800
WIRE -224 848 -224 800
WIRE -64 848 -64 800
WIRE 80 848 80 800
WIRE 608 848 608 800
WIRE 752 848 752 800
WIRE 1296 864 1296 720
WIRE 2400 864 2400 816
WIRE 3296 864 3232 864
WIRE -176 896 -224 896
WIRE -32 896 -64 896
WIRE 144 896 80 896
WIRE 192 896 192 768
WIRE 224 896 192 896
WIRE 272 896 272 864
WIRE 640 896 608 896
WIRE 816 896 752 896
WIRE 864 896 864 768
WIRE 896 896 864 896
WIRE 944 896 944 864
WIRE 1408 912 1296 912
WIRE 2208 912 2192 912
WIRE 2320 912 2320 864
WIRE 2320 912 2208 912
WIRE 2544 912 2320 912
WIRE 4112 912 4112 832
WIRE 2320 928 2320 912
WIRE -224 944 -224 928
WIRE 80 960 80 944
WIRE 144 960 144 896
WIRE 144 960 80 960
WIRE 752 960 752 944
WIRE 816 960 816 896
WIRE 816 960 752 960
WIRE 1520 960 1520 864
WIRE 3232 960 3232 912
WIRE 3296 960 3296 864
WIRE 3296 960 3232 960
WIRE 4160 960 4160 784
WIRE 4160 960 4112 960
WIRE -176 976 -176 896
WIRE -64 976 -64 944
WIRE -64 976 -176 976
WIRE -32 976 -32 896
WIRE -32 976 -64 976
WIRE 608 976 608 944
WIRE 640 976 640 896
WIRE 640 976 608 976
WIRE 3232 992 3232 960
WIRE -224 1008 -224 944
WIRE -64 1008 -64 976
WIRE -64 1008 -224 1008
WIRE 80 1008 80 960
WIRE 80 1008 -64 1008
WIRE 608 1008 608 976
WIRE 752 1008 752 960
WIRE 752 1008 608 1008
WIRE 1584 1008 1584 816
WIRE 1584 1008 1520 1008
WIRE 2208 1008 2208 912
WIRE 2544 1008 2544 912
WIRE -64 1056 -64 1008
WIRE 608 1056 608 1008
WIRE 2352 1056 2208 1056
WIRE 2640 1056 2544 1056
WIRE 4112 1056 4112 1008
WIRE 4160 1056 4160 960
WIRE 4160 1056 4112 1056
WIRE 4176 1056 4160 1056
WIRE -2208 1072 -2208 1056
WIRE -2208 1072 -2224 1072
WIRE -2208 1088 -2208 1072
WIRE -2112 1104 -2160 1104
WIRE -2064 1104 -2112 1104
WIRE 1296 1104 1296 960
WIRE 1408 1104 1408 912
WIRE 1408 1104 1296 1104
WIRE 1520 1104 1520 1056
WIRE 1520 1104 1408 1104
WIRE 1584 1104 1584 1008
WIRE 1584 1104 1520 1104
WIRE 4112 1120 4112 1056
WIRE -2224 1136 -2224 1072
WIRE -2208 1136 -2224 1136
WIRE 1408 1152 1408 1104
WIRE 2208 1152 2208 1104
WIRE 2352 1152 2352 1056
WIRE 2352 1152 2208 1152
WIRE 2544 1152 2544 1104
WIRE 2544 1152 2352 1152
WIRE 2640 1152 2640 1056
WIRE 2640 1152 2544 1152
WIRE -2208 1232 -2208 1184
WIRE 2352 1232 2352 1152
WIRE -2224 1280 -2224 1136
WIRE -2208 1280 -2224 1280
WIRE 1152 1296 1152 1264
WIRE -2208 1360 -2208 1328
WIRE -2112 1360 -2112 1104
WIRE -2112 1360 -2208 1360
WIRE -2208 1392 -2208 1360
WIRE -2080 1408 -2160 1408
WIRE -1728 1856 -2272 1856
WIRE -656 1856 -1200 1856
WIRE 496 1856 -48 1856
WIRE 1568 1856 1024 1856
WIRE 2720 1856 2176 1856
WIRE 3792 1856 3248 1856
WIRE 4944 1856 4400 1856
WIRE 6016 1856 5472 1856
WIRE -2496 1904 -2496 1872
WIRE -2496 1904 -2592 1904
WIRE -2400 1904 -2496 1904
WIRE -2336 1904 -2400 1904
WIRE -1424 1904 -1424 1872
WIRE -1424 1904 -1520 1904
WIRE -1328 1904 -1424 1904
WIRE -1264 1904 -1328 1904
WIRE -272 1904 -272 1872
WIRE -272 1904 -368 1904
WIRE -176 1904 -272 1904
WIRE -112 1904 -176 1904
WIRE 800 1904 800 1872
WIRE 800 1904 704 1904
WIRE 896 1904 800 1904
WIRE 960 1904 896 1904
WIRE 1952 1904 1952 1872
WIRE 1952 1904 1856 1904
WIRE 2048 1904 1952 1904
WIRE 2112 1904 2048 1904
WIRE 3024 1904 3024 1872
WIRE 3024 1904 2928 1904
WIRE 3120 1904 3024 1904
WIRE 3184 1904 3120 1904
WIRE 4176 1904 4176 1872
WIRE 4176 1904 4080 1904
WIRE 4272 1904 4176 1904
WIRE 4336 1904 4272 1904
WIRE 5248 1904 5248 1872
WIRE 5248 1904 5152 1904
WIRE 5344 1904 5248 1904
WIRE 5408 1904 5344 1904
WIRE -2400 1936 -2400 1904
WIRE -1328 1936 -1328 1904
WIRE -176 1936 -176 1904
WIRE 896 1936 896 1904
WIRE 2048 1936 2048 1904
WIRE 3120 1936 3120 1904
WIRE 4272 1936 4272 1904
WIRE 5344 1936 5344 1904
WIRE -2048 1968 -2048 1952
WIRE -2032 1968 -2048 1968
WIRE -976 1968 -976 1952
WIRE -960 1968 -976 1968
WIRE 176 1968 176 1952
WIRE 192 1968 176 1968
WIRE 1248 1968 1248 1952
WIRE 1264 1968 1248 1968
WIRE 2400 1968 2400 1952
WIRE 2416 1968 2400 1968
WIRE 3472 1968 3472 1952
WIRE 3488 1968 3472 1968
WIRE 4624 1968 4624 1952
WIRE 4640 1968 4624 1968
WIRE 5696 1968 5696 1952
WIRE 5712 1968 5696 1968
WIRE -2336 1984 -2336 1904
WIRE -2336 1984 -2400 1984
WIRE -2048 1984 -2048 1968
WIRE -1264 1984 -1264 1904
WIRE -1264 1984 -1328 1984
WIRE -976 1984 -976 1968
WIRE -112 1984 -112 1904
WIRE -112 1984 -176 1984
WIRE 176 1984 176 1968
WIRE 960 1984 960 1904
WIRE 960 1984 896 1984
WIRE 1248 1984 1248 1968
WIRE 2112 1984 2112 1904
WIRE 2112 1984 2048 1984
WIRE 2400 1984 2400 1968
WIRE 3184 1984 3184 1904
WIRE 3184 1984 3120 1984
WIRE 3472 1984 3472 1968
WIRE 4336 1984 4336 1904
WIRE 4336 1984 4272 1984
WIRE 4624 1984 4624 1968
WIRE 5408 1984 5408 1904
WIRE 5408 1984 5344 1984
WIRE 5696 1984 5696 1968
WIRE -2048 2000 -2048 1984
WIRE -976 2000 -976 1984
WIRE 176 2000 176 1984
WIRE 1248 2000 1248 1984
WIRE 2400 2000 2400 1984
WIRE 3472 2000 3472 1984
WIRE 4624 2000 4624 1984
WIRE 5696 2000 5696 1984
WIRE -2448 2016 -2736 2016
WIRE -1376 2016 -1664 2016
WIRE -224 2016 -512 2016
WIRE 848 2016 560 2016
WIRE 2000 2016 1712 2016
WIRE 3072 2016 2784 2016
WIRE 4224 2016 3936 2016
WIRE 5296 2016 5008 2016
WIRE -2592 2032 -2592 1904
WIRE -2032 2032 -2032 1968
WIRE -2032 2032 -2048 2032
WIRE -1520 2032 -1520 1904
WIRE -960 2032 -960 1968
WIRE -960 2032 -976 2032
WIRE -368 2032 -368 1904
WIRE 192 2032 192 1968
WIRE 192 2032 176 2032
WIRE 704 2032 704 1904
WIRE 1264 2032 1264 1968
WIRE 1264 2032 1248 2032
WIRE 1856 2032 1856 1904
WIRE 2416 2032 2416 1968
WIRE 2416 2032 2400 2032
WIRE 2928 2032 2928 1904
WIRE 3488 2032 3488 1968
WIRE 3488 2032 3472 2032
WIRE 4080 2032 4080 1904
WIRE 4640 2032 4640 1968
WIRE 4640 2032 4624 2032
WIRE 5152 2032 5152 1904
WIRE 5712 2032 5712 1968
WIRE 5712 2032 5696 2032
WIRE -2496 2080 -2496 1904
WIRE -2496 2080 -2592 2080
WIRE -1424 2080 -1424 1904
WIRE -1424 2080 -1520 2080
WIRE -272 2080 -272 1904
WIRE -272 2080 -368 2080
WIRE 800 2080 800 1904
WIRE 800 2080 704 2080
WIRE 1952 2080 1952 1904
WIRE 1952 2080 1856 2080
WIRE 3024 2080 3024 1904
WIRE 3024 2080 2928 2080
WIRE 4176 2080 4176 1904
WIRE 4176 2080 4080 2080
WIRE 5248 2080 5248 1904
WIRE 5248 2080 5152 2080
WIRE -1808 2096 -1808 2048
WIRE -1808 2096 -1888 2096
WIRE -736 2096 -736 2048
WIRE -736 2096 -816 2096
WIRE 416 2096 416 2048
WIRE 416 2096 336 2096
WIRE 1488 2096 1488 2048
WIRE 1488 2096 1408 2096
WIRE 2640 2096 2640 2048
WIRE 2640 2096 2560 2096
WIRE 3712 2096 3712 2048
WIRE 3712 2096 3632 2096
WIRE 4864 2096 4864 2048
WIRE 4864 2096 4784 2096
WIRE 5936 2096 5936 2048
WIRE 5936 2096 5856 2096
WIRE -2688 2112 -2736 2112
WIRE -2640 2112 -2688 2112
WIRE -2400 2112 -2400 2032
WIRE -2048 2112 -2048 2080
WIRE -2048 2112 -2128 2112
WIRE -1968 2112 -2048 2112
WIRE -1616 2112 -1664 2112
WIRE -1568 2112 -1616 2112
WIRE -1328 2112 -1328 2032
WIRE -976 2112 -976 2080
WIRE -976 2112 -1056 2112
WIRE -896 2112 -976 2112
WIRE -464 2112 -512 2112
WIRE -416 2112 -464 2112
WIRE -176 2112 -176 2032
WIRE 176 2112 176 2080
WIRE 176 2112 96 2112
WIRE 256 2112 176 2112
WIRE 608 2112 560 2112
WIRE 656 2112 608 2112
WIRE 896 2112 896 2032
WIRE 1248 2112 1248 2080
WIRE 1248 2112 1168 2112
WIRE 1328 2112 1248 2112
WIRE 1760 2112 1712 2112
WIRE 1808 2112 1760 2112
WIRE 2048 2112 2048 2032
WIRE 2400 2112 2400 2080
WIRE 2400 2112 2320 2112
WIRE 2480 2112 2400 2112
WIRE 2832 2112 2784 2112
WIRE 2880 2112 2832 2112
WIRE 3120 2112 3120 2032
WIRE 3472 2112 3472 2080
WIRE 3472 2112 3392 2112
WIRE 3552 2112 3472 2112
WIRE 3984 2112 3936 2112
WIRE 4032 2112 3984 2112
WIRE 4272 2112 4272 2032
WIRE 4624 2112 4624 2080
WIRE 4624 2112 4544 2112
WIRE 4704 2112 4624 2112
WIRE 5056 2112 5008 2112
WIRE 5104 2112 5056 2112
WIRE 5344 2112 5344 2032
WIRE 5696 2112 5696 2080
WIRE 5696 2112 5616 2112
WIRE 5776 2112 5696 2112
WIRE -1888 2144 -1888 2096
WIRE -1808 2144 -1888 2144
WIRE -816 2144 -816 2096
WIRE -736 2144 -816 2144
WIRE 336 2144 336 2096
WIRE 416 2144 336 2144
WIRE 1408 2144 1408 2096
WIRE 1488 2144 1408 2144
WIRE 2560 2144 2560 2096
WIRE 2640 2144 2560 2144
WIRE 3632 2144 3632 2096
WIRE 3712 2144 3632 2144
WIRE 4784 2144 4784 2096
WIRE 4864 2144 4784 2144
WIRE 5856 2144 5856 2096
WIRE 5936 2144 5856 2144
WIRE -2336 2160 -2336 1984
WIRE -2336 2160 -2400 2160
WIRE -2048 2160 -2128 2160
WIRE -1968 2160 -2048 2160
WIRE -1264 2160 -1264 1984
WIRE -1264 2160 -1328 2160
WIRE -976 2160 -1056 2160
WIRE -896 2160 -976 2160
WIRE -112 2160 -112 1984
WIRE -112 2160 -176 2160
WIRE 176 2160 96 2160
WIRE 256 2160 176 2160
WIRE 960 2160 960 1984
WIRE 960 2160 896 2160
WIRE 1248 2160 1168 2160
WIRE 1328 2160 1248 2160
WIRE 2112 2160 2112 1984
WIRE 2112 2160 2048 2160
WIRE 2400 2160 2320 2160
WIRE 2480 2160 2400 2160
WIRE 3184 2160 3184 1984
WIRE 3184 2160 3120 2160
WIRE 3472 2160 3392 2160
WIRE 3552 2160 3472 2160
WIRE 4336 2160 4336 1984
WIRE 4336 2160 4272 2160
WIRE 4624 2160 4544 2160
WIRE 4704 2160 4624 2160
WIRE 5408 2160 5408 1984
WIRE 5408 2160 5344 2160
WIRE 5696 2160 5616 2160
WIRE 5776 2160 5696 2160
WIRE -1728 2176 -1728 1856
WIRE -1728 2176 -1760 2176
WIRE -656 2176 -656 1856
WIRE -656 2176 -688 2176
WIRE 496 2176 496 1856
WIRE 496 2176 464 2176
WIRE 1568 2176 1568 1856
WIRE 1568 2176 1536 2176
WIRE 2720 2176 2720 1856
WIRE 2720 2176 2688 2176
WIRE 3792 2176 3792 1856
WIRE 3792 2176 3760 2176
WIRE 4944 2176 4944 1856
WIRE 4944 2176 4912 2176
WIRE 6016 2176 6016 1856
WIRE 6016 2176 5984 2176
WIRE -2656 2192 -2736 2192
WIRE -2448 2192 -2656 2192
WIRE -2272 2192 -2272 1856
WIRE -2176 2192 -2272 2192
WIRE -1808 2192 -1920 2192
WIRE -1584 2192 -1664 2192
WIRE -1376 2192 -1584 2192
WIRE -1200 2192 -1200 1856
WIRE -1104 2192 -1200 2192
WIRE -736 2192 -848 2192
WIRE -432 2192 -512 2192
WIRE -224 2192 -432 2192
WIRE -48 2192 -48 1856
WIRE 48 2192 -48 2192
WIRE 416 2192 304 2192
WIRE 640 2192 560 2192
WIRE 848 2192 640 2192
WIRE 1024 2192 1024 1856
WIRE 1120 2192 1024 2192
WIRE 1488 2192 1376 2192
WIRE 1792 2192 1712 2192
WIRE 2000 2192 1792 2192
WIRE 2176 2192 2176 1856
WIRE 2272 2192 2176 2192
WIRE 2640 2192 2528 2192
WIRE 2864 2192 2784 2192
WIRE 3072 2192 2864 2192
WIRE 3248 2192 3248 1856
WIRE 3344 2192 3248 2192
WIRE 3712 2192 3600 2192
WIRE 4016 2192 3936 2192
WIRE 4224 2192 4016 2192
WIRE 4400 2192 4400 1856
WIRE 4496 2192 4400 2192
WIRE 4864 2192 4752 2192
WIRE 5088 2192 5008 2192
WIRE 5296 2192 5088 2192
WIRE 5472 2192 5472 1856
WIRE 5568 2192 5472 2192
WIRE 5936 2192 5824 2192
WIRE -2048 2224 -2048 2160
WIRE -1808 2224 -1808 2192
WIRE -976 2224 -976 2160
WIRE -736 2224 -736 2192
WIRE 176 2224 176 2160
WIRE 416 2224 416 2192
WIRE 1248 2224 1248 2160
WIRE 1488 2224 1488 2192
WIRE 2400 2224 2400 2160
WIRE 2640 2224 2640 2192
WIRE 3472 2224 3472 2160
WIRE 3712 2224 3712 2192
WIRE 4624 2224 4624 2160
WIRE 4864 2224 4864 2192
WIRE 5696 2224 5696 2160
WIRE 5936 2224 5936 2192
WIRE -2592 2240 -2592 2128
WIRE -2512 2240 -2592 2240
WIRE -2400 2240 -2400 2208
WIRE -2400 2240 -2512 2240
WIRE -1520 2240 -1520 2128
WIRE -1440 2240 -1520 2240
WIRE -1328 2240 -1328 2208
WIRE -1328 2240 -1440 2240
WIRE -368 2240 -368 2128
WIRE -288 2240 -368 2240
WIRE -176 2240 -176 2208
WIRE -176 2240 -288 2240
WIRE 704 2240 704 2128
WIRE 784 2240 704 2240
WIRE 896 2240 896 2208
WIRE 896 2240 784 2240
WIRE 1856 2240 1856 2128
WIRE 1936 2240 1856 2240
WIRE 2048 2240 2048 2208
WIRE 2048 2240 1936 2240
WIRE 2928 2240 2928 2128
WIRE 3008 2240 2928 2240
WIRE 3120 2240 3120 2208
WIRE 3120 2240 3008 2240
WIRE 4080 2240 4080 2128
WIRE 4160 2240 4080 2240
WIRE 4272 2240 4272 2208
WIRE 4272 2240 4160 2240
WIRE 5152 2240 5152 2128
WIRE 5232 2240 5152 2240
WIRE 5344 2240 5344 2208
WIRE 5344 2240 5232 2240
WIRE -2512 2256 -2512 2240
WIRE -2272 2256 -2272 2192
WIRE -2272 2256 -2512 2256
WIRE -1440 2256 -1440 2240
WIRE -1200 2256 -1200 2192
WIRE -1200 2256 -1440 2256
WIRE -288 2256 -288 2240
WIRE -48 2256 -48 2192
WIRE -48 2256 -288 2256
WIRE 784 2256 784 2240
WIRE 1024 2256 1024 2192
WIRE 1024 2256 784 2256
WIRE 1936 2256 1936 2240
WIRE 2176 2256 2176 2192
WIRE 2176 2256 1936 2256
WIRE 3008 2256 3008 2240
WIRE 3248 2256 3248 2192
WIRE 3248 2256 3008 2256
WIRE 4160 2256 4160 2240
WIRE 4400 2256 4400 2192
WIRE 4400 2256 4160 2256
WIRE 5232 2256 5232 2240
WIRE 5472 2256 5472 2192
WIRE 5472 2256 5232 2256
WIRE -2512 2288 -2512 2256
WIRE -2512 2288 -2592 2288
WIRE -2400 2288 -2512 2288
WIRE -1440 2288 -1440 2256
WIRE -1440 2288 -1520 2288
WIRE -1328 2288 -1440 2288
WIRE -288 2288 -288 2256
WIRE -288 2288 -368 2288
WIRE -176 2288 -288 2288
WIRE 784 2288 784 2256
WIRE 784 2288 704 2288
WIRE 896 2288 784 2288
WIRE 1936 2288 1936 2256
WIRE 1936 2288 1856 2288
WIRE 2048 2288 1936 2288
WIRE 3008 2288 3008 2256
WIRE 3008 2288 2928 2288
WIRE 3120 2288 3008 2288
WIRE 4160 2288 4160 2256
WIRE 4160 2288 4080 2288
WIRE 4272 2288 4160 2288
WIRE 5232 2288 5232 2256
WIRE 5232 2288 5152 2288
WIRE 5344 2288 5232 2288
WIRE -2400 2304 -2400 2288
WIRE -1808 2304 -1808 2272
WIRE -1728 2304 -1728 2176
WIRE -1728 2304 -1760 2304
WIRE -1328 2304 -1328 2288
WIRE -736 2304 -736 2272
WIRE -656 2304 -656 2176
WIRE -656 2304 -688 2304
WIRE -176 2304 -176 2288
WIRE 416 2304 416 2272
WIRE 496 2304 496 2176
WIRE 496 2304 464 2304
WIRE 896 2304 896 2288
WIRE 1488 2304 1488 2272
WIRE 1568 2304 1568 2176
WIRE 1568 2304 1536 2304
WIRE 2048 2304 2048 2288
WIRE 2640 2304 2640 2272
WIRE 2720 2304 2720 2176
WIRE 2720 2304 2688 2304
WIRE 3120 2304 3120 2288
WIRE 3712 2304 3712 2272
WIRE 3792 2304 3792 2176
WIRE 3792 2304 3760 2304
WIRE 4272 2304 4272 2288
WIRE 4864 2304 4864 2272
WIRE 4944 2304 4944 2176
WIRE 4944 2304 4912 2304
WIRE 5344 2304 5344 2288
WIRE 5936 2304 5936 2272
WIRE 6016 2304 6016 2176
WIRE 6016 2304 5984 2304
WIRE -2576 2336 -2592 2336
WIRE -1504 2336 -1520 2336
WIRE -352 2336 -368 2336
WIRE 720 2336 704 2336
WIRE 1872 2336 1856 2336
WIRE 2944 2336 2928 2336
WIRE 4096 2336 4080 2336
WIRE 5168 2336 5152 2336
WIRE -2576 2352 -2576 2336
WIRE -2352 2352 -2400 2352
WIRE -1504 2352 -1504 2336
WIRE -1280 2352 -1328 2352
WIRE -352 2352 -352 2336
WIRE -128 2352 -176 2352
WIRE 720 2352 720 2336
WIRE 944 2352 896 2352
WIRE 1872 2352 1872 2336
WIRE 2096 2352 2048 2352
WIRE 2944 2352 2944 2336
WIRE 3168 2352 3120 2352
WIRE 4096 2352 4096 2336
WIRE 4320 2352 4272 2352
WIRE 5168 2352 5168 2336
WIRE 5392 2352 5344 2352
WIRE -2656 2368 -2656 2192
WIRE -2640 2368 -2656 2368
WIRE -1584 2368 -1584 2192
WIRE -1568 2368 -1584 2368
WIRE -432 2368 -432 2192
WIRE -416 2368 -432 2368
WIRE 640 2368 640 2192
WIRE 656 2368 640 2368
WIRE 1792 2368 1792 2192
WIRE 1808 2368 1792 2368
WIRE 2864 2368 2864 2192
WIRE 2880 2368 2864 2368
WIRE 4016 2368 4016 2192
WIRE 4032 2368 4016 2368
WIRE 5088 2368 5088 2192
WIRE 5104 2368 5088 2368
WIRE -2592 2416 -2592 2384
WIRE -2512 2416 -2592 2416
WIRE -2400 2416 -2400 2400
WIRE -2400 2416 -2512 2416
WIRE -1520 2416 -1520 2384
WIRE -1440 2416 -1520 2416
WIRE -1328 2416 -1328 2400
WIRE -1328 2416 -1440 2416
WIRE -368 2416 -368 2384
WIRE -288 2416 -368 2416
WIRE -176 2416 -176 2400
WIRE -176 2416 -288 2416
WIRE 704 2416 704 2384
WIRE 784 2416 704 2416
WIRE 896 2416 896 2400
WIRE 896 2416 784 2416
WIRE 1856 2416 1856 2384
WIRE 1936 2416 1856 2416
WIRE 2048 2416 2048 2400
WIRE 2048 2416 1936 2416
WIRE 2928 2416 2928 2384
WIRE 3008 2416 2928 2416
WIRE 3120 2416 3120 2400
WIRE 3120 2416 3008 2416
WIRE 4080 2416 4080 2384
WIRE 4160 2416 4080 2416
WIRE 4272 2416 4272 2400
WIRE 4272 2416 4160 2416
WIRE 5152 2416 5152 2384
WIRE 5232 2416 5152 2416
WIRE 5344 2416 5344 2400
WIRE 5344 2416 5232 2416
WIRE -2448 2464 -2512 2464
WIRE -1376 2464 -1440 2464
WIRE -224 2464 -288 2464
WIRE 848 2464 784 2464
WIRE 2000 2464 1936 2464
WIRE 3072 2464 3008 2464
WIRE 4224 2464 4160 2464
WIRE 5296 2464 5232 2464
WIRE -2688 2496 -2688 2112
WIRE -2560 2496 -2688 2496
WIRE -2448 2496 -2448 2464
WIRE -2448 2496 -2512 2496
WIRE -2352 2496 -2352 2352
WIRE -2352 2496 -2448 2496
WIRE -1616 2496 -1616 2112
WIRE -1488 2496 -1616 2496
WIRE -1376 2496 -1376 2464
WIRE -1376 2496 -1440 2496
WIRE -1280 2496 -1280 2352
WIRE -1280 2496 -1376 2496
WIRE -464 2496 -464 2112
WIRE -336 2496 -464 2496
WIRE -224 2496 -224 2464
WIRE -224 2496 -288 2496
WIRE -128 2496 -128 2352
WIRE -128 2496 -224 2496
WIRE 608 2496 608 2112
WIRE 736 2496 608 2496
WIRE 848 2496 848 2464
WIRE 848 2496 784 2496
WIRE 944 2496 944 2352
WIRE 944 2496 848 2496
WIRE 1760 2496 1760 2112
WIRE 1888 2496 1760 2496
WIRE 2000 2496 2000 2464
WIRE 2000 2496 1936 2496
WIRE 2096 2496 2096 2352
WIRE 2096 2496 2000 2496
WIRE 2832 2496 2832 2112
WIRE 2960 2496 2832 2496
WIRE 3072 2496 3072 2464
WIRE 3072 2496 3008 2496
WIRE 3168 2496 3168 2352
WIRE 3168 2496 3072 2496
WIRE 3984 2496 3984 2112
WIRE 4112 2496 3984 2496
WIRE 4224 2496 4224 2464
WIRE 4224 2496 4160 2496
WIRE 4320 2496 4320 2352
WIRE 4320 2496 4224 2496
WIRE 5056 2496 5056 2112
WIRE 5184 2496 5056 2496
WIRE 5296 2496 5296 2464
WIRE 5296 2496 5232 2496
WIRE 5392 2496 5392 2352
WIRE 5392 2496 5296 2496
WIRE -2512 2544 -2512 2512
WIRE -1440 2544 -1440 2512
WIRE -288 2544 -288 2512
WIRE 784 2544 784 2512
WIRE 1936 2544 1936 2512
WIRE 3008 2544 3008 2512
WIRE 4160 2544 4160 2512
WIRE 5232 2544 5232 2512
WIRE -2848 2592 -2864 2592
WIRE -2128 2592 -2128 2208
WIRE -2128 2592 -2848 2592
WIRE -1056 2592 -1056 2208
WIRE -1056 2592 -2128 2592
WIRE 96 2592 96 2208
WIRE 96 2592 -1056 2592
WIRE 1168 2592 1168 2208
WIRE 1168 2592 96 2592
WIRE 2320 2592 2320 2208
WIRE 2320 2592 1168 2592
WIRE 3392 2592 3392 2208
WIRE 3392 2592 2320 2592
WIRE 4544 2592 4544 2208
WIRE 4544 2592 3392 2592
WIRE 5616 2592 5616 2208
WIRE 5616 2592 4544 2592
WIRE -1968 2688 -1968 2208
WIRE -1968 2688 -3088 2688
WIRE -896 2688 -896 2208
WIRE -896 2688 -1968 2688
WIRE 256 2688 256 2208
WIRE 256 2688 -896 2688
WIRE 1328 2688 1328 2208
WIRE 1328 2688 256 2688
WIRE 2480 2688 2480 2208
WIRE 2480 2688 1328 2688
WIRE 3552 2688 3552 2208
WIRE 3552 2688 2480 2688
WIRE 4704 2688 4704 2208
WIRE 4704 2688 3552 2688
WIRE 5776 2688 5776 2208
WIRE 5776 2688 4704 2688
WIRE -1712 3008 -2256 3008
WIRE -640 3008 -1184 3008
WIRE 512 3008 -32 3008
WIRE 1584 3008 1040 3008
WIRE 2736 3008 2192 3008
WIRE 3808 3008 3264 3008
WIRE 4960 3008 4416 3008
WIRE 6032 3008 5488 3008
WIRE -2480 3056 -2480 3024
WIRE -2480 3056 -2576 3056
WIRE -2384 3056 -2480 3056
WIRE -2320 3056 -2384 3056
WIRE -1408 3056 -1408 3024
WIRE -1408 3056 -1504 3056
WIRE -1312 3056 -1408 3056
WIRE -1248 3056 -1312 3056
WIRE -256 3056 -256 3024
WIRE -256 3056 -352 3056
WIRE -160 3056 -256 3056
WIRE -96 3056 -160 3056
WIRE 816 3056 816 3024
WIRE 816 3056 720 3056
WIRE 912 3056 816 3056
WIRE 976 3056 912 3056
WIRE 1968 3056 1968 3024
WIRE 1968 3056 1872 3056
WIRE 2064 3056 1968 3056
WIRE 2128 3056 2064 3056
WIRE 3040 3056 3040 3024
WIRE 3040 3056 2944 3056
WIRE 3136 3056 3040 3056
WIRE 3200 3056 3136 3056
WIRE 4192 3056 4192 3024
WIRE 4192 3056 4096 3056
WIRE 4288 3056 4192 3056
WIRE 4352 3056 4288 3056
WIRE 5264 3056 5264 3024
WIRE 5264 3056 5168 3056
WIRE 5360 3056 5264 3056